@<TRIPOS>MOLECULE
1hw9.pdb
70 71 1 0 0
SMALL
AMBER ff14SB


@<TRIPOS>ATOM
      1 O1A         2.9910  -12.1410   -6.4140 O.co2     1 SIM   -0.8478
      2 O1B         4.9550  -13.0410   -5.8050 O.co2     1 SIM   -0.8478
      3 O3          6.5530  -11.0970   -7.8740 O.3       1 SIM   -0.6598
      4 O5          6.8800   -7.0260   -8.7990 O.3       1 SIM   -0.6098
      5 O14         3.9440   -9.7270  -13.8540 O.3       1 SIM   -0.4229
      6 O18         6.0390  -10.7330  -13.9060 O.2       1 SIM   -0.5630
      7 C1          4.3020  -12.0700   -6.1070 C.2       1 SIM    0.9086
      8 C2          4.8670  -10.6540   -6.1700 C.3       1 SIM   -0.2344
      9 C3          5.4610  -10.2550   -7.5370 C.3       1 SIM    0.1681
     10 C4          5.9990   -8.8390   -7.5340 C.3       1 SIM   -0.0794
     11 C5          6.1700   -8.2460   -8.9290 C.3       1 SIM    0.1371
     12 C6          4.8030   -7.9740   -9.5840 C.3       1 SIM   -0.1194
     13 C7          4.8500   -7.7310  -11.1180 C.3       1 SIM   -0.0814
     14 C8          3.4460   -7.6950  -11.8180 C.3       1 SIM   -0.0497
     15 C9          2.4310   -6.6860  -11.1490 C.3       1 SIM   -0.0365
     16 C10         1.0880   -6.7420  -11.9080 C.2       1 SIM   -0.1472
     17 C11         0.9770   -7.0800  -13.2240 C.2       1 SIM   -0.1390
     18 C12         2.0630   -7.4020  -13.9910 C.2       1 SIM   -0.0622
     19 C17         1.8870   -7.7320  -15.3070 C.2       1 SIM   -0.1632
     20 C16         3.0230   -8.1130  -16.2890 C.3       1 SIM   -0.0205
     21 C15         4.4520   -8.0630  -15.6480 C.3       1 SIM   -0.0974
     22 C14         4.4430   -8.3800  -14.1230 C.3       1 SIM    0.1541
     23 C13         3.5050   -7.3940  -13.3700 C.3       1 SIM   -0.0145
     24 C9A         2.8890   -5.2130  -11.1760 C.3       1 SIM   -0.0861
     25 C18         4.8090  -10.8040  -13.7660 C.2       1 SIM    0.6401
     26 C19         4.0320  -12.1460  -13.4550 C.3       1 SIM   -0.0880
     27 C20         4.5020  -12.7550  -12.0870 C.3       1 SIM   -0.0694
     28 C21         4.1410  -11.9990  -10.7830 C.3       1 SIM   -0.1141
     29 C22         4.2450  -13.1940  -14.5950 C.3       1 SIM   -0.0871
     30 C23         2.4880  -11.9380  -13.3850 C.3       1 SIM   -0.0871
     31 C24         2.7200   -9.5180  -16.8460 C.3       1 SIM   -0.0881
     32 H22         4.0628   -9.9573   -5.9334 H         1 SIM    0.0372
     33 H23         5.6444  -10.5567   -5.4122 H         1 SIM    0.0372
     34 H3          4.6902  -10.3440   -8.3025 H         1 SIM    0.0237
     35 H42         5.3072   -8.2092   -6.9747 H         1 SIM    0.0517
     36 H43         6.9652   -8.8323   -7.0295 H         1 SIM    0.0517
     37 H5          6.7412   -8.9356   -9.5506 H         1 SIM    0.0567
     38 H62         4.1607   -8.8346   -9.3970 H         1 SIM    0.0562
     39 H63         4.3585   -7.0999   -9.1081 H         1 SIM    0.0562
     40 H72         5.4350   -8.5315  -11.5709 H         1 SIM    0.0382
     41 H73         5.3554   -6.7834  -11.3042 H         1 SIM    0.0382
     42 H8          3.0159   -8.6905  -11.7083 H         1 SIM    0.0747
     43 H9          2.2650   -6.9856  -10.1142 H         1 SIM    0.0657
     44 H10         0.1857   -6.4998  -11.3661 H         1 SIM    0.1200
     45 H11        -0.0032   -7.0941  -13.6772 H         1 SIM    0.1180
     46 H17         0.8776   -7.7265  -15.6911 H         1 SIM    0.1160
     47 H16         3.0011   -7.4083  -17.1203 H         1 SIM    0.0417
     48 H152        4.8635   -7.0642  -15.7932 H         1 SIM    0.0542
     49 H153        5.0917   -8.7854  -16.1549 H         1 SIM    0.0542
     50 H14         5.4551   -8.2857  -13.7296 H         1 SIM    0.0697
     51 H13         3.9123   -6.3908  -13.4958 H         1 SIM    0.0587
     52 H202        5.5886  -12.8323  -12.1247 H         1 SIM    0.0532
     53 H203        4.0966  -13.7641  -12.0125 H         1 SIM    0.0532
     54 HO5         7.0010   -6.6317   -9.6659 H         1 SIM    0.3840
     55 H221        5.3100  -13.3965  -14.7087 H         1 SIM    0.0445
     56 H222        3.7249  -14.1176  -14.3409 H         1 SIM    0.0445
     57 H223        3.8483  -12.7991  -15.5303 H         1 SIM    0.0445
     58 H231        2.2535  -11.2131  -12.6055 H         1 SIM    0.0445
     59 H232        2.0038  -12.8872  -13.1556 H         1 SIM    0.0445
     60 H233        2.1272  -11.5688  -14.3450 H         1 SIM    0.0445
     61 H9A1        3.8390   -5.1176  -10.6501 H         1 SIM    0.0354
     62 H9A2        2.1394   -4.5907  -10.6873 H         1 SIM    0.0354
     63 H9A3        3.0119   -4.8896  -12.2096 H         1 SIM    0.0354
     64 H241        1.7227   -9.5278  -17.2858 H         1 SIM    0.0367
     65 H242        2.7673  -10.2472  -16.0372 H         1 SIM    0.0367
     66 H243        3.4559   -9.7730  -17.6086 H         1 SIM    0.0367
     67 HO3         6.2601  -12.0111   -7.8889 H         1 SIM    0.4560
     68 H211        4.8982  -12.1991  -10.0249 H         1 SIM    0.0537
     69 H212        4.1016  -10.9283  -10.9831 H         1 SIM    0.0537
     70 H213        3.1691  -12.3375  -10.4239 H         1 SIM    0.0537
@<TRIPOS>BOND
     1    1    7 2
     2    2    7 2
     3    3    9 1
     4    4   11 1
     5    5   22 1
     6    5   25 1
     7    6   25 2
     8    7    8 1
     9    8    9 1
    10    9   10 1
    11   10   11 1
    12   11   12 1
    13   12   13 1
    14   13   14 1
    15   14   15 1
    16   14   23 1
    17   15   16 1
    18   15   24 1
    19   16   17 2
    20   17   18 2
    21   18   19 2
    22   18   23 1
    23   19   20 1
    24   20   21 1
    25   20   31 1
    26   21   22 1
    27   22   23 1
    28   25   26 1
    29   26   27 1
    30   26   29 1
    31   26   30 1
    32   27   28 1
    33   32    8 1
    34   33    8 1
    35   34    9 1
    36   35   10 1
    37   36   10 1
    38   37   11 1
    39   38   12 1
    40   39   12 1
    41   40   13 1
    42   41   13 1
    43   42   14 1
    44   43   15 1
    45   44   16 1
    46   45   17 1
    47   46   19 1
    48   47   20 1
    49   48   21 1
    50   49   21 1
    51   50   22 1
    52   51   23 1
    53   52   27 1
    54   53   27 1
    55   54    4 1
    56   55   29 1
    57   56   29 1
    58   57   29 1
    59   58   30 1
    60   59   30 1
    61   60   30 1
    62   61   24 1
    63   62   24 1
    64   63   24 1
    65   64   31 1
    66   65   31 1
    67   66   31 1
    68   67    3 1
    69   68   28 1
    70   69   28 1
    71   70   28 1
@<TRIPOS>SUBSTRUCTURE
     1 SIM     1 RESIDUE           4 A     SIM     0 ROOT
