@<TRIPOS>MOLECULE
3odu.pdb
63 66 1 0 0
SMALL
AMBER ff14SB


@<TRIPOS>ATOM
      1 C1         16.2630   -6.2800   67.1020 C.3       1 ITD   -0.1006
      2 N1         17.9260   -7.9840   67.6150 N.pl3     1 ITD   -0.1692
      3 S1         18.8530   -9.8430   69.4940 S.2       1 ITD    0.3682
      4 C2         17.6610   -6.5460   67.6430 C.3       1 ITD   -0.0093
      5 N2         18.2090   -7.3820   69.7010 N.ar      1 ITD   -0.0951
      6 S2         20.2660   -6.1330   72.2410 S.3       1 ITD   -0.8467
      7 C3         18.7290   -5.8120   66.8360 C.3       1 ITD   -0.1006
      8 N3         20.7210   -8.1890   73.6900 N.4       1 ITD   -0.7765
      9 C4         18.2290   -8.3790   68.8590 C.ar      1 ITD   -0.1746
     10 N4         22.5090   -7.4970   72.3240 N.4       1 ITD   -0.7765
     11 C5         18.9810   -9.0930   71.0610 C.ar      1 ITD   -0.4971
     12 C6         17.7520   -6.1320   69.1200 C.3       1 ITD   -0.0167
     13 C7         18.5880   -7.7370   70.9550 C.ar      1 ITD    0.1044
     14 C8         18.6210   -6.7600   72.1050 C.3       1 ITD   -0.1690
     15 C9         21.2550   -7.3690   72.7790 C.3       1 ITD    0.6086
     16 C10        21.3010   -9.3400   74.3660 C.3       1 ITD    0.2315
     17 C11        22.1470   -9.0060   75.5860 C.3       1 ITD   -0.0997
     18 C12        22.2680  -10.2460   76.4700 C.3       1 ITD   -0.0749
     19 C13        22.8210  -11.4530   75.7100 C.3       1 ITD   -0.0799
     20 C14        22.1440  -11.6820   74.3500 C.3       1 ITD   -0.0749
     21 C15        21.9670  -10.4100   73.5160 C.3       1 ITD   -0.0997
     22 C16        22.9540   -7.4320   70.9310 C.3       1 ITD    0.2315
     23 C17        21.8950   -7.6050   69.8450 C.3       1 ITD   -0.0997
     24 C18        22.5520   -7.7520   68.4730 C.3       1 ITD   -0.0749
     25 C19        23.5120   -6.6030   68.1570 C.3       1 ITD   -0.0799
     26 C20        24.5160   -6.3620   69.2800 C.3       1 ITD   -0.0749
     27 C21        23.8280   -6.2180   70.6370 C.3       1 ITD   -0.0997
     28 HN1        17.8873   -8.5772   66.7985 H         1 ITD    0.2247
     29 HN3        19.7681   -7.9770   73.9490 H         1 ITD    0.4598
     30 H4         23.2253   -7.6557   73.0181 H         1 ITD    0.4598
     31 H5         19.3072   -9.5829   71.9665 H         1 ITD    0.1820
     32 H62        18.4721   -5.3279   69.2715 H         1 ITD    0.0912
     33 H63        16.7718   -5.8564   69.5090 H         1 ITD    0.0912
     34 H82        18.3407   -7.2664   73.0286 H         1 ITD    0.0767
     35 H83        17.9297   -5.9399   71.9108 H         1 ITD    0.0767
     36 H10        20.4356   -9.8511   74.7877 H         1 ITD    0.0602
     37 H112       21.6727   -8.2022   76.1491 H         1 ITD    0.0571
     38 H113       23.1394   -8.6893   75.2652 H         1 ITD    0.0571
     39 H122       22.9363  -10.0195   77.3007 H         1 ITD    0.0416
     40 H123       21.2837  -10.4968   76.8653 H         1 ITD    0.0416
     41 H132       22.6751  -12.3428   76.3223 H         1 ITD    0.0427
     42 H133       23.8895  -11.3080   75.5504 H         1 ITD    0.0427
     43 H142       22.7524  -12.3833   73.7790 H         1 ITD    0.0416
     44 H143       21.1637  -12.1277   74.5189 H         1 ITD    0.0416
     45 H152       22.9421  -10.0550   73.1823 H         1 ITD    0.0571
     46 H153       21.3427  -10.6271   72.6493 H         1 ITD    0.0571
     47 H16        23.6178   -8.2882   70.8109 H         1 ITD    0.0602
     48 H172       21.3061   -8.4972   70.0577 H         1 ITD    0.0571
     49 H173       21.2397   -6.7340   69.8390 H         1 ITD    0.0571
     50 H182       23.1088   -8.6888   68.4508 H         1 ITD    0.0416
     51 H183       21.7746   -7.7840   67.7097 H         1 ITD    0.0416
     52 H192       22.9314   -5.6931   68.0048 H         1 ITD    0.0427
     53 H193       24.0540   -6.8355   67.2404 H         1 ITD    0.0427
     54 H202       25.2063   -7.2045   69.3225 H         1 ITD    0.0416
     55 H203       25.0772   -5.4522   69.0669 H         1 ITD    0.0416
     56 H212       23.2058   -5.3231   70.6291 H         1 ITD    0.0571
     57 H213       24.5849   -6.1228   71.4156 H         1 ITD    0.0571
     58 H11        16.2152   -6.5786   66.0548 H         1 ITD    0.0505
     59 H12        16.0369   -5.2171   67.1871 H         1 ITD    0.0505
     60 H13        15.5358   -6.8533   67.6769 H         1 ITD    0.0505
     61 H31        18.6615   -6.1080   65.7891 H         1 ITD    0.0505
     62 H32        19.7156   -6.0673   67.2226 H         1 ITD    0.0505
     63 H33        18.5729   -4.7365   66.9203 H         1 ITD    0.0505
@<TRIPOS>BOND
     1    1    4 1
     2    2    4 1
     3    2    9 1
     4    3    9 ar
     5    3   11 ar
     6    4    7 1
     7    4   12 1
     8    5    9 ar
     9    5   12 1
    10    5   13 ar
    11    6   14 1
    12    6   15 1
    13    8   15 1
    14    8   16 1
    15   10   15 1
    16   10   22 1
    17   11   13 ar
    18   13   14 1
    19   16   17 1
    20   16   21 1
    21   17   18 1
    22   18   19 1
    23   19   20 1
    24   20   21 1
    25   22   23 1
    26   22   27 1
    27   23   24 1
    28   24   25 1
    29   25   26 1
    30   26   27 1
    31   28    2 1
    32   29    8 1
    33   30   10 1
    34   31   11 1
    35   32   12 1
    36   33   12 1
    37   34   14 1
    38   35   14 1
    39   36   16 1
    40   37   17 1
    41   38   17 1
    42   39   18 1
    43   40   18 1
    44   41   19 1
    45   42   19 1
    46   43   20 1
    47   44   20 1
    48   45   21 1
    49   46   21 1
    50   47   22 1
    51   48   23 1
    52   49   23 1
    53   50   24 1
    54   51   24 1
    55   52   25 1
    56   53   25 1
    57   54   26 1
    58   55   26 1
    59   56   27 1
    60   57   27 1
    61   58    1 1
    62   59    1 1
    63   60    1 1
    64   61    7 1
    65   62    7 1
    66   63    7 1
@<TRIPOS>SUBSTRUCTURE
     1 ITD     1 RESIDUE           4 A     ITD     0 ROOT
