@<TRIPOS>MOLECULE
3odu_chain_A.pdb
63 66 1 0 0
SMALL
AMBER ff14SB


@<TRIPOS>ATOM
      1 C1         16.2630   -6.2800   67.1020 C.3       1 ITD   -0.0971
      2 N1         17.9260   -7.9840   67.6150 N.pl3     1 ITD   -0.1702
      3 S1         18.8530   -9.8430   69.4940 S.2       1 ITD    0.3882
      4 C2         17.6610   -6.5460   67.6430 C.3       1 ITD   -0.0133
      5 N2         18.2090   -7.3820   69.7010 N.ar      1 ITD   -0.0941
      6 S2         20.2660   -6.1330   72.2410 S.3       1 ITD   -0.8287
      7 C3         18.7290   -5.8120   66.8360 C.3       1 ITD   -0.0971
      8 N3         20.7210   -8.1890   73.6900 N.pl3     1 ITD   -0.7670
      9 C4         18.2290   -8.3790   68.8590 C.ar      1 ITD   -0.2006
     10 N4         22.5090   -7.4970   72.3240 N.pl3     1 ITD   -0.7670
     11 C5         18.9810   -9.0930   71.0610 C.ar      1 ITD   -0.4931
     12 C6         17.7520   -6.1320   69.1200 C.3       1 ITD   -0.0177
     13 C7         18.5880   -7.7370   70.9550 C.ar      1 ITD    0.0924
     14 C8         18.6210   -6.7600   72.1050 C.3       1 ITD   -0.1400
     15 C9         21.2550   -7.3690   72.7790 C.2       1 ITD    0.5996
     16 C10        21.3010   -9.3400   74.3660 C.3       1 ITD    0.2295
     17 C11        22.1470   -9.0060   75.5860 C.3       1 ITD   -0.1019
     18 C12        22.2680  -10.2460   76.4700 C.3       1 ITD   -0.0746
     19 C13        22.8210  -11.4530   75.7100 C.3       1 ITD   -0.0804
     20 C14        22.1440  -11.6820   74.3500 C.3       1 ITD   -0.0746
     21 C15        21.9670  -10.4100   73.5160 C.3       1 ITD   -0.1019
     22 C16        22.9540   -7.4320   70.9310 C.3       1 ITD    0.2295
     23 C17        21.8950   -7.6050   69.8450 C.3       1 ITD   -0.1019
     24 C18        22.5520   -7.7520   68.4730 C.3       1 ITD   -0.0746
     25 C19        23.5120   -6.6030   68.1570 C.3       1 ITD   -0.0804
     26 C20        24.5160   -6.3620   69.2800 C.3       1 ITD   -0.0746
     27 C21        23.8280   -6.2180   70.6370 C.3       1 ITD   -0.1019
     28 HN1        17.8873   -8.5772   66.7985 H         1 ITD    0.2227
     29 HN3        19.7681   -7.9770   73.9490 H         1 ITD    0.4493
     30 H4         23.2253   -7.6557   73.0181 H         1 ITD    0.4493
     31 H5         19.3072   -9.5829   71.9665 H         1 ITD    0.1820
     32 H62        18.4721   -5.3279   69.2715 H         1 ITD    0.0882
     33 H63        16.7718   -5.8564   69.5090 H         1 ITD    0.0882
     34 H82        18.3407   -7.2664   73.0286 H         1 ITD    0.0727
     35 H83        17.9297   -5.9399   71.9108 H         1 ITD    0.0727
     36 H10        20.4356   -9.8511   74.7877 H         1 ITD    0.0567
     37 H112       23.1394   -8.6891   75.2653 H         1 ITD    0.0596
     38 H113       21.6725   -8.2023   76.1491 H         1 ITD    0.0596
     39 H122       22.9363  -10.0195   77.3007 H         1 ITD    0.0418
     40 H123       21.2837  -10.4968   76.8653 H         1 ITD    0.0418
     41 H132       22.6751  -12.3428   76.3223 H         1 ITD    0.0427
     42 H133       23.8895  -11.3080   75.5504 H         1 ITD    0.0427
     43 H142       21.1593  -12.1147   74.5268 H         1 ITD    0.0418
     44 H143       22.7403  -12.3935   73.7788 H         1 ITD    0.0418
     45 H152       21.3427  -10.6271   72.6493 H         1 ITD    0.0596
     46 H153       22.9421  -10.0550   73.1824 H         1 ITD    0.0596
     47 H16        23.6178   -8.2882   70.8109 H         1 ITD    0.0567
     48 H172       21.3061   -8.4972   70.0577 H         1 ITD    0.0596
     49 H173       21.2397   -6.7340   69.8390 H         1 ITD    0.0596
     50 H182       21.7715   -7.7745   67.7124 H         1 ITD    0.0418
     51 H183       23.1029   -8.6921   68.4431 H         1 ITD    0.0418
     52 H192       22.9314   -5.6931   68.0048 H         1 ITD    0.0427
     53 H193       24.0540   -6.8355   67.2404 H         1 ITD    0.0427
     54 H202       25.2063   -7.2045   69.3225 H         1 ITD    0.0418
     55 H203       25.0772   -5.4522   69.0669 H         1 ITD    0.0418
     56 H212       23.2058   -5.3231   70.6291 H         1 ITD    0.0596
     57 H213       24.5849   -6.1228   71.4156 H         1 ITD    0.0596
     58 H11        16.2152   -6.5786   66.0548 H         1 ITD    0.0489
     59 H12        16.0369   -5.2171   67.1871 H         1 ITD    0.0489
     60 H13        15.5358   -6.8533   67.6769 H         1 ITD    0.0489
     61 H31        18.6615   -6.1080   65.7891 H         1 ITD    0.0489
     62 H32        18.5724   -4.7366   66.9201 H         1 ITD    0.0489
     63 H33        19.7157   -6.0668   67.2227 H         1 ITD    0.0489
@<TRIPOS>BOND
     1    1    4 1
     2   16    8 1
     3   16   17 1
     4   16   21 1
     5   17   18 1
     6   18   19 1
     7   19   20 1
     8   20   21 1
     9   22   10 1
    10   22   23 1
    11   22   27 1
    12   23   24 1
    13   24   25 1
    14   25   26 1
    15    4    2 1
    16    4    7 1
    17    4   12 1
    18   26   27 1
    19    9    2 1
    20    9    3 ar
    21    9    5 ar
    22   11    3 ar
    23   11   13 ar
    24   12    5 1
    25   13    5 ar
    26   13   14 1
    27   14    6 1
    28   15    6 1
    29   15    8 2
    30   15   10 2
    31   28    2 1
    32   29    8 1
    33   30   10 1
    34   31   11 1
    35   32   12 1
    36   33   12 1
    37   34   14 1
    38   35   14 1
    39   36   16 1
    40   37   17 1
    41   38   17 1
    42   39   18 1
    43   40   18 1
    44   41   19 1
    45   42   19 1
    46   43   20 1
    47   44   20 1
    48   45   21 1
    49   46   21 1
    50   47   22 1
    51   48   23 1
    52   49   23 1
    53   50   24 1
    54   51   24 1
    55   52   25 1
    56   53   25 1
    57   54   26 1
    58   55   26 1
    59   56   27 1
    60   57   27 1
    61   58    1 1
    62   59    1 1
    63   60    1 1
    64   61    7 1
    65   62    7 1
    66   63    7 1
@<TRIPOS>SUBSTRUCTURE
     1 ITD     1 RESIDUE           4 A     ITD     0 ROOT
